MODEL 1
REMARK VINA RESULT:      -7.0      0.000      0.000
REMARK  4 active torsions:
REMARK  status: ('A' for Active; 'I' for Inactive)
REMARK    1  A    between atoms: O_1  and  C_5 
REMARK    2  A    between atoms: O_1  and  C_14 
REMARK    3  A    between atoms: O_2  and  C_18 
REMARK    4  A    between atoms: C_10  and  C_13 
ROOT
HETATM    1  C   UNL     1      53.738 114.439 133.816  1.00  0.00    -0.049 A 
HETATM    2  C   UNL     1      53.090 115.993 132.094  1.00  0.00     0.103 A 
HETATM    3  C   UNL     1      53.801 115.716 133.257  1.00  0.00     0.047 A 
HETATM    4  C   UNL     1      52.968 113.447 133.209  1.00  0.00     0.010 A 
HETATM    5  C   UNL     1      52.320 115.009 131.483  1.00  0.00     0.101 A 
HETATM    6  C   UNL     1      52.259 113.733 132.043  1.00  0.00     0.040 A 
ENDROOT
BRANCH   1   7
HETATM    7  C   UNL     1      54.508 114.130 135.083  1.00  0.00     0.045 C 
HETATM    8  C   UNL     1      54.110 112.842 135.807  1.00  0.00     0.132 C 
HETATM    9  N   UNL     1      55.267 112.522 136.595  1.00  0.00    -0.360 N 
HETATM   10  C   UNL     1      56.421 113.130 136.121  1.00  0.00     0.218 C 
HETATM   11  H   UNL     1      55.256 111.879 137.381  1.00  0.00     0.162 HD
HETATM   12  O   UNL     1      57.555 113.008 136.554  1.00  0.00    -0.274 OA
HETATM   13  C   UNL     1      56.028 113.947 134.914  1.00  0.00     0.113 C 
ENDBRANCH   1   7
BRANCH   2  14
HETATM   14  O   UNL     1      53.160 117.251 131.554  1.00  0.00    -0.343 OA
BRANCH  14  15
HETATM   15  C   UNL     1      52.578 118.305 132.310  1.00  0.00     0.129 C 
HETATM   16  C   UNL     1      51.252 118.706 131.681  1.00  0.00     0.032 C 
HETATM   17  C   UNL     1      51.640 119.600 130.504  1.00  0.00     0.002 C 
HETATM   18  C   UNL     1      53.040 120.131 130.813  1.00  0.00     0.002 C 
HETATM   19  C   UNL     1      53.413 119.570 132.183  1.00  0.00     0.032 C 
ENDBRANCH  14  15
ENDBRANCH   2  14
BRANCH   5  20
HETATM   20  O   UNL     1      51.624 115.276 130.343  1.00  0.00    -0.353 OA
HETATM   21  C   UNL     1      50.814 114.226 129.818  1.00  0.00     0.210 C 
ENDBRANCH   5  20
TORSDOF 4
ENDMDL
