MODEL 1
REMARK VINA RESULT:      -8.8      0.000      0.000
REMARK  4 active torsions:
REMARK  status: ('A' for Active; 'I' for Inactive)
REMARK    1  A    between atoms: O_1  and  C_5 
REMARK    2  A    between atoms: O_1  and  C_14 
REMARK    3  A    between atoms: O_2  and  C_18 
REMARK    4  A    between atoms: C_10  and  C_13 
ROOT
HETATM    1  C   UNL     1      55.628  87.805 147.228  1.00  0.00    -0.049 A 
HETATM    2  C   UNL     1      57.899  88.038 147.998  1.00  0.00     0.103 A 
HETATM    3  C   UNL     1      56.539  87.939 148.276  1.00  0.00     0.047 A 
HETATM    4  C   UNL     1      56.081  87.768 145.909  1.00  0.00     0.010 A 
HETATM    5  C   UNL     1      58.357  88.001 146.685  1.00  0.00     0.101 A 
HETATM    6  C   UNL     1      57.445  87.866 145.638  1.00  0.00     0.040 A 
ENDROOT
BRANCH   1   7
HETATM    7  C   UNL     1      54.147  87.699 147.522  1.00  0.00     0.045 C 
HETATM    8  C   UNL     1      53.407  89.025 147.706  1.00  0.00     0.132 C 
HETATM    9  N   UNL     1      52.036  88.692 147.439  1.00  0.00    -0.360 N 
HETATM   10  C   UNL     1      51.905  87.527 146.696  1.00  0.00     0.218 C 
HETATM   11  H   UNL     1      51.249  89.271 147.714  1.00  0.00     0.162 HD
HETATM   12  O   UNL     1      50.873  87.024 146.282  1.00  0.00    -0.274 OA
HETATM   13  C   UNL     1      53.298  87.005 146.440  1.00  0.00     0.113 C 
ENDBRANCH   1   7
BRANCH   2  14
HETATM   14  O   UNL     1      58.784  88.168 149.036  1.00  0.00    -0.343 OA
BRANCH  14  15
HETATM   15  C   UNL     1      59.115  86.982 149.747  1.00  0.00     0.129 C 
HETATM   16  C   UNL     1      59.462  87.336 151.185  1.00  0.00     0.032 C 
HETATM   17  C   UNL     1      60.902  87.844 151.119  1.00  0.00     0.002 C 
HETATM   18  C   UNL     1      61.503  87.263 149.839  1.00  0.00     0.002 C 
HETATM   19  C   UNL     1      60.414  86.393 149.216  1.00  0.00     0.032 C 
ENDBRANCH  14  15
ENDBRANCH   2  14
BRANCH   5  20
HETATM   20  O   UNL     1      59.688  88.095 146.408  1.00  0.00    -0.353 OA
HETATM   21  C   UNL     1      60.294  86.980 145.757  1.00  0.00     0.210 C 
ENDBRANCH   5  20
TORSDOF 4
ENDMDL
