MODEL 1
REMARK VINA RESULT:      -5.0      0.000      0.000
REMARK  4 active torsions:
REMARK  status: ('A' for Active; 'I' for Inactive)
REMARK    1  A    between atoms: O_1  and  C_5 
REMARK    2  A    between atoms: O_1  and  C_14 
REMARK    3  A    between atoms: O_2  and  C_18 
REMARK    4  A    between atoms: C_10  and  C_13 
ROOT
HETATM    1  C   UNL     1      69.703  84.016 149.947  1.00  0.00    -0.049 A 
HETATM    2  C   UNL     1      71.979  83.953 149.160  1.00  0.00     0.103 A 
HETATM    3  C   UNL     1      70.614  83.982 148.891  1.00  0.00     0.047 A 
HETATM    4  C   UNL     1      70.161  84.023 151.265  1.00  0.00     0.010 A 
HETATM    5  C   UNL     1      72.443  83.961 150.471  1.00  0.00     0.101 A 
HETATM    6  C   UNL     1      71.530  83.996 151.526  1.00  0.00     0.040 A 
ENDROOT
BRANCH   1   7
HETATM    7  C   UNL     1      68.216  84.045 149.663  1.00  0.00     0.045 C 
HETATM    8  C   UNL     1      67.366  84.857 150.642  1.00  0.00     0.132 C 
HETATM    9  N   UNL     1      66.179  85.159 149.894  1.00  0.00    -0.360 N 
HETATM   10  C   UNL     1      66.372  85.062 148.523  1.00  0.00     0.218 C 
HETATM   11  H   UNL     1      65.306  85.463 150.315  1.00  0.00     0.162 HD
HETATM   12  O   UNL     1      65.563  85.303 147.641  1.00  0.00    -0.274 OA
HETATM   13  C   UNL     1      67.807  84.647 148.305  1.00  0.00     0.113 C 
ENDBRANCH   1   7
BRANCH   2  14
HETATM   14  O   UNL     1      72.864  83.921 148.114  1.00  0.00    -0.343 OA
BRANCH  14  15
HETATM   15  C   UNL     1      72.942  85.089 147.305  1.00  0.00     0.129 C 
HETATM   16  C   UNL     1      73.894  84.837 146.146  1.00  0.00     0.032 C 
HETATM   17  C   UNL     1      75.287  85.013 146.748  1.00  0.00     0.002 C 
HETATM   18  C   UNL     1      75.107  85.873 147.999  1.00  0.00     0.002 C 
HETATM   19  C   UNL     1      73.621  86.216 148.069  1.00  0.00     0.032 C 
ENDBRANCH  14  15
ENDBRANCH   2  14
BRANCH   5  20
HETATM   20  O   UNL     1      73.778  83.935 150.739  1.00  0.00    -0.353 OA
HETATM   21  C   UNL     1      74.306  82.728 151.284  1.00  0.00     0.210 C 
ENDBRANCH   5  20
TORSDOF 4
ENDMDL
