MODEL 1
REMARK VINA RESULT:      -8.8      0.000      0.000
REMARK  4 active torsions:
REMARK  status: ('A' for Active; 'I' for Inactive)
REMARK    1  A    between atoms: O_1  and  C_5 
REMARK    2  A    between atoms: O_1  and  C_14 
REMARK    3  A    between atoms: O_2  and  C_18 
REMARK    4  A    between atoms: C_10  and  C_13 
ROOT
HETATM    1  C   UNL     1      55.630  87.839 147.218  1.00  0.00    -0.049 A 
HETATM    2  C   UNL     1      57.901  88.067 147.987  1.00  0.00     0.103 A 
HETATM    3  C   UNL     1      56.542  87.961 148.266  1.00  0.00     0.047 A 
HETATM    4  C   UNL     1      56.080  87.821 145.898  1.00  0.00     0.010 A 
HETATM    5  C   UNL     1      58.357  88.049 146.673  1.00  0.00     0.101 A 
HETATM    6  C   UNL     1      57.444  87.926 145.626  1.00  0.00     0.040 A 
ENDROOT
BRANCH   1   7
HETATM    7  C   UNL     1      54.149  87.725 147.514  1.00  0.00     0.045 C 
HETATM    8  C   UNL     1      53.398  89.047 147.672  1.00  0.00     0.132 C 
HETATM    9  N   UNL     1      52.030  88.697 147.411  1.00  0.00    -0.360 N 
HETATM   10  C   UNL     1      51.909  87.517 146.690  1.00  0.00     0.218 C 
HETATM   11  H   UNL     1      51.237  89.274 147.675  1.00  0.00     0.162 HD
HETATM   12  O   UNL     1      50.883  86.997 146.285  1.00  0.00    -0.274 OA
HETATM   13  C   UNL     1      53.307  87.003 146.444  1.00  0.00     0.113 C 
ENDBRANCH   1   7
BRANCH   2  14
HETATM   14  O   UNL     1      58.788  88.185 149.025  1.00  0.00    -0.343 OA
BRANCH  14  15
HETATM   15  C   UNL     1      59.100  86.996 149.739  1.00  0.00     0.129 C 
HETATM   16  C   UNL     1      59.499  87.351 151.164  1.00  0.00     0.032 C 
HETATM   17  C   UNL     1      60.952  87.811 151.052  1.00  0.00     0.002 C 
HETATM   18  C   UNL     1      61.497  87.198 149.762  1.00  0.00     0.002 C 
HETATM   19  C   UNL     1      60.363  86.359 149.179  1.00  0.00     0.032 C 
ENDBRANCH  14  15
ENDBRANCH   2  14
BRANCH   5  20
HETATM   20  O   UNL     1      59.687  88.150 146.395  1.00  0.00    -0.353 OA
HETATM   21  C   UNL     1      60.318  87.007 145.822  1.00  0.00     0.210 C 
ENDBRANCH   5  20
TORSDOF 4
ENDMDL
