MODEL 1
REMARK VINA RESULT:      -7.6      0.000      0.000
REMARK  4 active torsions:
REMARK  status: ('A' for Active; 'I' for Inactive)
REMARK    1  A    between atoms: O_1  and  C_5 
REMARK    2  A    between atoms: O_1  and  C_14 
REMARK    3  A    between atoms: O_2  and  C_18 
REMARK    4  A    between atoms: C_10  and  C_13 
ROOT
HETATM    1  C   UNL     1      77.317 106.909 165.455  1.00  0.00    -0.049 A 
HETATM    2  C   UNL     1      76.612 109.188 165.120  1.00  0.00     0.103 A 
HETATM    3  C   UNL     1      76.448 107.829 164.868  1.00  0.00     0.047 A 
HETATM    4  C   UNL     1      78.343 107.351 166.291  1.00  0.00     0.010 A 
HETATM    5  C   UNL     1      77.633 109.635 165.953  1.00  0.00     0.101 A 
HETATM    6  C   UNL     1      78.500 108.713 166.539  1.00  0.00     0.040 A 
ENDROOT
BRANCH   1   7
HETATM    7  C   UNL     1      77.146 105.429 165.184  1.00  0.00     0.045 C 
HETATM    8  C   UNL     1      76.432 105.068 163.881  1.00  0.00     0.132 C 
HETATM    9  N   UNL     1      76.861 103.724 163.617  1.00  0.00    -0.360 N 
HETATM   10  C   UNL     1      78.038 103.399 164.278  1.00  0.00     0.218 C 
HETATM   11  H   UNL     1      76.389 103.094 162.976  1.00  0.00     0.162 HD
HETATM   12  O   UNL     1      78.663 102.353 164.210  1.00  0.00    -0.274 OA
HETATM   13  C   UNL     1      78.449 104.615 165.073  1.00  0.00     0.113 C 
ENDBRANCH   1   7
BRANCH   2  14
HETATM   14  O   UNL     1      75.752 110.083 164.539  1.00  0.00    -0.343 OA
BRANCH  14  15
HETATM   15  C   UNL     1      74.362 109.823 164.689  1.00  0.00     0.129 C 
HETATM   16  C   UNL     1      73.567 110.890 163.952  1.00  0.00     0.032 C 
HETATM   17  C   UNL     1      73.569 112.091 164.897  1.00  0.00     0.002 C 
HETATM   18  C   UNL     1      73.839 111.536 166.295  1.00  0.00     0.002 C 
HETATM   19  C   UNL     1      73.941 110.020 166.137  1.00  0.00     0.032 C 
ENDBRANCH  14  15
ENDBRANCH   2  14
BRANCH   5  20
HETATM   20  O   UNL     1      77.796 110.964 166.204  1.00  0.00    -0.353 OA
HETATM   21  C   UNL     1      77.329 111.448 167.461  1.00  0.00     0.210 C 
ENDBRANCH   5  20
TORSDOF 4
ENDMDL
