MODEL 1
REMARK VINA RESULT:      -8.8      0.000      0.000
REMARK  4 active torsions:
REMARK  status: ('A' for Active; 'I' for Inactive)
REMARK    1  A    between atoms: O_1  and  C_5 
REMARK    2  A    between atoms: O_1  and  C_14 
REMARK    3  A    between atoms: O_2  and  C_18 
REMARK    4  A    between atoms: C_10  and  C_13 
ROOT
HETATM    1  C   UNL     1      55.626  87.827 147.212  1.00  0.00    -0.049 A 
HETATM    2  C   UNL     1      57.899  88.048 147.981  1.00  0.00     0.103 A 
HETATM    3  C   UNL     1      56.539  87.946 148.260  1.00  0.00     0.047 A 
HETATM    4  C   UNL     1      56.077  87.808 145.892  1.00  0.00     0.010 A 
HETATM    5  C   UNL     1      58.355  88.029 146.667  1.00  0.00     0.101 A 
HETATM    6  C   UNL     1      57.441  87.909 145.620  1.00  0.00     0.040 A 
ENDROOT
BRANCH   1   7
HETATM    7  C   UNL     1      54.146  87.718 147.508  1.00  0.00     0.045 C 
HETATM    8  C   UNL     1      53.395  89.043 147.651  1.00  0.00     0.132 C 
HETATM    9  N   UNL     1      52.027  88.690 147.392  1.00  0.00    -0.360 N 
HETATM   10  C   UNL     1      51.906  87.502 146.685  1.00  0.00     0.218 C 
HETATM   11  H   UNL     1      51.235  89.271 147.649  1.00  0.00     0.162 HD
HETATM   12  O   UNL     1      50.879  86.979 146.284  1.00  0.00    -0.274 OA
HETATM   13  C   UNL     1      53.304  86.985 146.446  1.00  0.00     0.113 C 
ENDBRANCH   1   7
BRANCH   2  14
HETATM   14  O   UNL     1      58.786  88.163 149.019  1.00  0.00    -0.343 OA
BRANCH  14  15
HETATM   15  C   UNL     1      59.113  86.968 149.717  1.00  0.00     0.129 C 
HETATM   16  C   UNL     1      59.460  87.305 151.159  1.00  0.00     0.032 C 
HETATM   17  C   UNL     1      60.901  87.809 151.100  1.00  0.00     0.002 C 
HETATM   18  C   UNL     1      61.501  87.240 149.814  1.00  0.00     0.002 C 
HETATM   19  C   UNL     1      60.410  86.381 149.181  1.00  0.00     0.032 C 
ENDBRANCH  14  15
ENDBRANCH   2  14
BRANCH   5  20
HETATM   20  O   UNL     1      59.685  88.126 146.389  1.00  0.00    -0.353 OA
HETATM   21  C   UNL     1      60.303  86.996 145.777  1.00  0.00     0.210 C 
ENDBRANCH   5  20
TORSDOF 4
ENDMDL
