MODEL 1
REMARK VINA RESULT:      -8.8      0.000      0.000
REMARK  4 active torsions:
REMARK  status: ('A' for Active; 'I' for Inactive)
REMARK    1  A    between atoms: O_1  and  C_5 
REMARK    2  A    between atoms: O_1  and  C_14 
REMARK    3  A    between atoms: O_2  and  C_18 
REMARK    4  A    between atoms: C_10  and  C_13 
ROOT
HETATM    1  C   UNL     1      55.580  87.805 147.169  1.00  0.00    -0.049 A 
HETATM    2  C   UNL     1      57.856  88.040 147.921  1.00  0.00     0.103 A 
HETATM    3  C   UNL     1      56.499  87.930 148.210  1.00  0.00     0.047 A 
HETATM    4  C   UNL     1      56.020  87.788 145.846  1.00  0.00     0.010 A 
HETATM    5  C   UNL     1      58.303  88.024 146.604  1.00  0.00     0.101 A 
HETATM    6  C   UNL     1      57.381  87.898 145.563  1.00  0.00     0.040 A 
ENDROOT
BRANCH   1   7
HETATM    7  C   UNL     1      54.102  87.686 147.476  1.00  0.00     0.045 C 
HETATM    8  C   UNL     1      53.354  89.006 147.671  1.00  0.00     0.132 C 
HETATM    9  N   UNL     1      51.983  88.663 147.415  1.00  0.00    -0.360 N 
HETATM   10  C   UNL     1      51.854  87.500 146.668  1.00  0.00     0.218 C 
HETATM   11  H   UNL     1      51.194  89.235 147.699  1.00  0.00     0.162 HD
HETATM   12  O   UNL     1      50.823  86.991 146.261  1.00  0.00    -0.274 OA
HETATM   13  C   UNL     1      53.249  86.990 146.398  1.00  0.00     0.113 C 
ENDBRANCH   1   7
BRANCH   2  14
HETATM   14  O   UNL     1      58.750  88.161 148.952  1.00  0.00    -0.343 OA
BRANCH  14  15
HETATM   15  C   UNL     1      59.033  86.983 149.697  1.00  0.00     0.129 C 
HETATM   16  C   UNL     1      59.444  87.365 151.110  1.00  0.00     0.032 C 
HETATM   17  C   UNL     1      60.908  87.783 150.985  1.00  0.00     0.002 C 
HETATM   18  C   UNL     1      61.434  87.122 149.710  1.00  0.00     0.002 C 
HETATM   19  C   UNL     1      60.277  86.299 149.151  1.00  0.00     0.032 C 
ENDBRANCH  14  15
ENDBRANCH   2  14
BRANCH   5  20
HETATM   20  O   UNL     1      59.630  88.129 146.316  1.00  0.00    -0.353 OA
HETATM   21  C   UNL     1      60.258  86.990 145.732  1.00  0.00     0.210 C 
ENDBRANCH   5  20
TORSDOF 4
ENDMDL
