MODEL 1
REMARK VINA RESULT:      -7.8      0.000      0.000
REMARK  4 active torsions:
REMARK  status: ('A' for Active; 'I' for Inactive)
REMARK    1  A    between atoms: O_1  and  C_5 
REMARK    2  A    between atoms: O_1  and  C_14 
REMARK    3  A    between atoms: O_2  and  C_18 
REMARK    4  A    between atoms: C_10  and  C_13 
ROOT
HETATM    1  C   UNL     1      60.250  87.887 150.872  1.00  0.00    -0.049 A 
HETATM    2  C   UNL     1      58.932  88.040 148.861  1.00  0.00     0.103 A 
HETATM    3  C   UNL     1      59.019  88.094 150.249  1.00  0.00     0.047 A 
HETATM    4  C   UNL     1      61.386  87.630 150.105  1.00  0.00     0.010 A 
HETATM    5  C   UNL     1      60.061  87.785 148.090  1.00  0.00     0.101 A 
HETATM    6  C   UNL     1      61.292  87.579 148.715  1.00  0.00     0.040 A 
ENDROOT
BRANCH   1   7
HETATM    7  C   UNL     1      60.352  87.943 152.381  1.00  0.00     0.045 C 
HETATM    8  C   UNL     1      61.305  88.997 152.947  1.00  0.00     0.132 C 
HETATM    9  N   UNL     1      60.834  89.199 154.288  1.00  0.00    -0.360 N 
HETATM   10  C   UNL     1      59.517  88.796 154.458  1.00  0.00     0.218 C 
HETATM   11  H   UNL     1      61.382  89.639 155.020  1.00  0.00     0.162 HD
HETATM   12  O   UNL     1      58.837  88.887 155.467  1.00  0.00    -0.274 OA
HETATM   13  C   UNL     1      59.043  88.258 153.129  1.00  0.00     0.113 C 
ENDBRANCH   1   7
BRANCH   2  14
HETATM   14  O   UNL     1      57.717  88.246 148.261  1.00  0.00    -0.343 OA
BRANCH  14  15
HETATM   15  C   UNL     1      56.895  87.101 148.072  1.00  0.00     0.129 C 
HETATM   16  C   UNL     1      56.756  86.819 146.584  1.00  0.00     0.032 C 
HETATM   17  C   UNL     1      55.697  87.810 146.102  1.00  0.00     0.002 C 
HETATM   18  C   UNL     1      54.888  88.206 147.338  1.00  0.00     0.002 C 
HETATM   19  C   UNL     1      55.466  87.401 148.500  1.00  0.00     0.032 C 
ENDBRANCH  14  15
ENDBRANCH   2  14
BRANCH   5  20
HETATM   20  O   UNL     1      59.981  87.733 146.731  1.00  0.00    -0.353 OA
HETATM   21  C   UNL     1      61.165  87.364 146.027  1.00  0.00     0.210 C 
ENDBRANCH   5  20
TORSDOF 4
ENDMDL
