REMARK  4 active torsions:
REMARK  status: ('A' for Active; 'I' for Inactive)
REMARK    1  A    between atoms: C02_2  and  O04_4 
REMARK    2  A    between atoms: C05_5  and  O09_8 
REMARK    3  A    between atoms: C07_6  and  C0B_10 
REMARK    4  A    between atoms: O09_8  and  C0F_11 
ROOT
ATOM      1  C01 UNL B 661      29.920  60.150 121.070  1.00  0.00     0.040 A 
ATOM      2  C02 UNL B 661      30.620  59.140 121.690  1.00  0.00     0.101 A 
ATOM      3  C03 UNL B 661      30.340  61.490 121.230  1.00  0.00     0.010 A 
ATOM      4  C05 UNL B 661      31.780  59.420 122.400  1.00  0.00     0.103 A 
ATOM      5  C07 UNL B 661      31.550  61.810 121.890  1.00  0.00    -0.049 A 
ATOM      6  C0A UNL B 661      32.240  60.770 122.470  1.00  0.00     0.047 A 
ENDROOT
BRANCH   5   7
ATOM      7  C0B UNL B 661      32.120  63.210 121.990  1.00  0.00     0.045 C 
ATOM      8  C0I UNL B 661      31.790  63.960 123.300  1.00  0.00     0.132 C 
ATOM      9  N0Q UNL B 661      33.130  64.030 123.870  1.00  0.00    -0.360 N 
ATOM     10  C0T UNL B 661      34.080  63.570 123.090  1.00  0.00     0.218 C 
ATOM     11  H10 UNL B 661      33.380  64.130 124.850  1.00  0.00     0.162 HD
ATOM     12  C0J UNL B 661      33.620  63.340 121.730  1.00  0.00     0.113 C 
ATOM     13  O11 UNL B 661      35.280  63.470 123.410  1.00  0.00    -0.274 OA
ENDBRANCH   5   7
BRANCH   4  14
ATOM     14  O09 UNL B 661      32.260  58.400 123.240  1.00  0.00    -0.343 OA
BRANCH  14  15
ATOM     15  C0F UNL B 661      33.180  58.610 124.250  1.00  0.00     0.129 C 
ATOM     16  C0M UNL B 661      34.640  58.880 123.630  1.00  0.00     0.032 C 
ATOM     17  C0W UNL B 661      35.300  57.480 123.340  1.00  0.00     0.002 C 
ATOM     18  C0Z UNL B 661      34.360  56.460 123.950  1.00  0.00     0.002 C 
ATOM     19  C0N UNL B 661      33.410  57.180 124.900  1.00  0.00     0.032 C 
ENDBRANCH  14  15
ENDBRANCH   4  14
BRANCH   2  20
ATOM     20  O04 UNL B 661      30.210  57.800 121.580  1.00  0.00    -0.353 OA
ATOM     21  C08 UNL B 661      29.060  57.450 120.720  1.00  0.00     0.210 C 
ENDBRANCH   2  20
TORSDOF 4
