MODEL 1
REMARK VINA RESULT:      -4.7      0.000      0.000
REMARK  4 active torsions:
REMARK  status: ('A' for Active; 'I' for Inactive)
REMARK    1  A    between atoms: C02_2  and  O04_4 
REMARK    2  A    between atoms: C05_5  and  O09_8 
REMARK    3  A    between atoms: C07_6  and  C0B_10 
REMARK    4  A    between atoms: O09_8  and  C0F_11 
ROOT
ATOM      1  C01 UNL B 661      35.725  62.471 127.116  1.00  0.00     0.040 A 
ATOM      2  C02 UNL B 661      35.397  63.290 126.060  1.00  0.00     0.101 A 
ATOM      3  C03 UNL B 661      36.309  61.208 126.864  1.00  0.00     0.010 A 
ATOM      4  C05 UNL B 661      35.710  62.922 124.758  1.00  0.00     0.103 A 
ATOM      5  C07 UNL B 661      36.701  60.824 125.560  1.00  0.00    -0.049 A 
ATOM      6  C0A UNL B 661      36.385  61.684 124.533  1.00  0.00     0.047 A 
ENDROOT
BRANCH   5   7
ATOM      7  C0B UNL B 661      37.440  59.541 125.237  1.00  0.00     0.045 C 
ATOM      8  C0I UNL B 661      38.211  58.914 126.420  1.00  0.00     0.132 C 
ATOM      9  N0Q UNL B 661      37.423  57.700 126.592  1.00  0.00    -0.360 N 
ATOM     10  C0T UNL B 661      36.484  57.526 125.691  1.00  0.00     0.218 C 
ATOM     11  H10 UNL B 661      37.329  57.137 127.433  1.00  0.00     0.162 HD
ATOM     12  C0J UNL B 661      36.613  58.444 124.570  1.00  0.00     0.113 C 
ATOM     13  O11 UNL B 661      35.654  56.597 125.695  1.00  0.00    -0.274 OA
ENDBRANCH   5   7
BRANCH   4  14
ATOM     14  O09 UNL B 661      35.084  63.653 123.734  1.00  0.00    -0.343 OA
BRANCH  14  15
ATOM     15  C0F UNL B 661      34.729  63.111 122.513  1.00  0.00     0.129 C 
ATOM     16  C0M UNL B 661      34.120  64.248 121.552  1.00  0.00     0.032 C 
ATOM     17  C0W UNL B 661      32.595  64.407 121.909  1.00  0.00     0.002 C 
ATOM     18  C0Z UNL B 661      32.291  63.281 122.876  1.00  0.00     0.002 C 
ATOM     19  C0N UNL B 661      33.421  62.261 122.807  1.00  0.00     0.032 C 
ENDBRANCH  14  15
ENDBRANCH   4  14
BRANCH   2  20
ATOM     20  O04 UNL B 661      34.785  64.537 126.273  1.00  0.00    -0.353 OA
ATOM     21  C08 UNL B 661      34.500  64.992 127.650  1.00  0.00     0.210 C 
ENDBRANCH   2  20
TORSDOF 4
ENDMDL
MODEL 2
REMARK VINA RESULT:      -4.6      2.905      6.229
REMARK  4 active torsions:
REMARK  status: ('A' for Active; 'I' for Inactive)
REMARK    1  A    between atoms: C02_2  and  O04_4 
REMARK    2  A    between atoms: C05_5  and  O09_8 
REMARK    3  A    between atoms: C07_6  and  C0B_10 
REMARK    4  A    between atoms: O09_8  and  C0F_11 
ROOT
ATOM      1  C01 UNL B 661      35.631  60.267 124.273  1.00  0.00     0.040 A 
ATOM      2  C02 UNL B 661      36.240  60.725 125.419  1.00  0.00     0.101 A 
ATOM      3  C03 UNL B 661      34.799  61.136 123.531  1.00  0.00     0.010 A 
ATOM      4  C05 UNL B 661      36.111  62.053 125.803  1.00  0.00     0.103 A 
ATOM      5  C07 UNL B 661      34.694  62.510 123.852  1.00  0.00    -0.049 A 
ATOM      6  C0A UNL B 661      35.344  62.938 124.987  1.00  0.00     0.047 A 
ENDROOT
BRANCH   5   7
ATOM      7  C0B UNL B 661      33.921  63.519 123.029  1.00  0.00     0.045 C 
ATOM      8  C0I UNL B 661      34.530  63.841 121.645  1.00  0.00     0.132 C 
ATOM      9  N0Q UNL B 661      33.493  63.265 120.797  1.00  0.00    -0.360 N 
ATOM     10  C0T UNL B 661      32.446  62.813 121.445  1.00  0.00     0.218 C 
ATOM     11  H10 UNL B 661      33.590  62.936 119.840  1.00  0.00     0.162 HD
ATOM     12  C0J UNL B 661      32.433  63.227 122.839  1.00  0.00     0.113 C 
ATOM     13  O11 UNL B 661      31.484  62.219 120.921  1.00  0.00    -0.274 OA
ENDBRANCH   5   7
BRANCH   4  14
ATOM     14  O09 UNL B 661      36.503  62.364 127.117  1.00  0.00    -0.343 OA
BRANCH  14  15
ATOM     15  C0F UNL B 661      35.677  62.987 128.034  1.00  0.00     0.129 C 
ATOM     16  C0M UNL B 661      36.464  63.237 129.416  1.00  0.00     0.032 C 
ATOM     17  C0W UNL B 661      36.375  61.910 130.260  1.00  0.00     0.002 C 
ATOM     18  C0Z UNL B 661      35.417  61.016 129.501  1.00  0.00     0.002 C 
ATOM     19  C0N UNL B 661      34.652  61.866 128.493  1.00  0.00     0.032 C 
ENDBRANCH  14  15
ENDBRANCH   4  14
BRANCH   2  20
ATOM     20  O04 UNL B 661      37.046  59.878 126.200  1.00  0.00    -0.353 OA
ATOM     21  C08 UNL B 661      38.220  59.215 125.595  1.00  0.00     0.210 C 
ENDBRANCH   2  20
TORSDOF 4
ENDMDL
MODEL 3
REMARK VINA RESULT:      -4.3      3.915      6.143
REMARK  4 active torsions:
REMARK  status: ('A' for Active; 'I' for Inactive)
REMARK    1  A    between atoms: C02_2  and  O04_4 
REMARK    2  A    between atoms: C05_5  and  O09_8 
REMARK    3  A    between atoms: C07_6  and  C0B_10 
REMARK    4  A    between atoms: O09_8  and  C0F_11 
ROOT
ATOM      1  C01 UNL B 661      30.723  62.450 121.079  1.00  0.00     0.040 A 
ATOM      2  C02 UNL B 661      31.674  62.850 121.991  1.00  0.00     0.101 A 
ATOM      3  C03 UNL B 661      30.494  61.071 120.870  1.00  0.00     0.010 A 
ATOM      4  C05 UNL B 661      32.347  61.913 122.764  1.00  0.00     0.103 A 
ATOM      5  C07 UNL B 661      31.111  60.090 121.681  1.00  0.00    -0.049 A 
ATOM      6  C0A UNL B 661      32.032  60.530 122.604  1.00  0.00     0.047 A 
ENDROOT
BRANCH   5   7
ATOM      7  C0B UNL B 661      30.817  58.606 121.593  1.00  0.00     0.045 C 
ATOM      8  C0I UNL B 661      29.991  58.173 120.362  1.00  0.00     0.132 C 
ATOM      9  N0Q UNL B 661      31.006  57.394 119.664  1.00  0.00    -0.360 N 
ATOM     10  C0T UNL B 661      32.134  57.254 120.321  1.00  0.00     0.218 C 
ATOM     11  H10 UNL B 661      31.052  57.188 118.670  1.00  0.00     0.162 HD
ATOM     12  C0J UNL B 661      32.026  57.679 121.707  1.00  0.00     0.113 C 
ATOM     13  O11 UNL B 661      33.153  56.690 119.877  1.00  0.00    -0.274 OA
ENDBRANCH   5   7
BRANCH   4  14
ATOM     14  O09 UNL B 661      33.493  62.368 123.439  1.00  0.00    -0.343 OA
BRANCH  14  15
ATOM     15  C0F UNL B 661      34.783  62.065 123.046  1.00  0.00     0.129 C 
ATOM     16  C0M UNL B 661      35.403  60.923 123.994  1.00  0.00     0.032 C 
ATOM     17  C0W UNL B 661      35.976  61.629 125.279  1.00  0.00     0.002 C 
ATOM     18  C0Z UNL B 661      35.880  63.115 124.996  1.00  0.00     0.002 C 
ATOM     19  C0N UNL B 661      35.654  63.312 123.501  1.00  0.00     0.032 C 
ENDBRANCH  14  15
ENDBRANCH   4  14
BRANCH   2  20
ATOM     20  O04 UNL B 661      31.951  64.213 122.198  1.00  0.00    -0.353 OA
ATOM     21  C08 UNL B 661      31.094  65.009 123.101  1.00  0.00     0.210 C 
ENDBRANCH   2  20
TORSDOF 4
ENDMDL
MODEL 4
REMARK VINA RESULT:      -4.3      2.150      3.272
REMARK  4 active torsions:
REMARK  status: ('A' for Active; 'I' for Inactive)
REMARK    1  A    between atoms: C02_2  and  O04_4 
REMARK    2  A    between atoms: C05_5  and  O09_8 
REMARK    3  A    between atoms: C07_6  and  C0B_10 
REMARK    4  A    between atoms: O09_8  and  C0F_11 
ROOT
ATOM      1  C01 UNL B 661      35.775  63.057 123.874  1.00  0.00     0.040 A 
ATOM      2  C02 UNL B 661      34.533  62.990 123.285  1.00  0.00     0.101 A 
ATOM      3  C03 UNL B 661      36.232  61.977 124.663  1.00  0.00     0.010 A 
ATOM      4  C05 UNL B 661      33.764  61.839 123.391  1.00  0.00     0.103 A 
ATOM      5  C07 UNL B 661      35.508  60.764 124.742  1.00  0.00    -0.049 A 
ATOM      6  C0A UNL B 661      34.285  60.723 124.113  1.00  0.00     0.047 A 
ENDROOT
BRANCH   5   7
ATOM      7  C0B UNL B 661      35.998  59.527 125.467  1.00  0.00     0.045 C 
ATOM      8  C0I UNL B 661      35.752  58.193 124.727  1.00  0.00     0.132 C 
ATOM      9  N0Q UNL B 661      37.134  57.829 124.440  1.00  0.00    -0.360 N 
ATOM     10  C0T UNL B 661      38.030  58.635 124.960  1.00  0.00     0.218 C 
ATOM     11  H10 UNL B 661      37.472  57.221 123.699  1.00  0.00     0.162 HD
ATOM     12  C0J UNL B 661      37.455  59.556 125.927  1.00  0.00     0.113 C 
ATOM     13  O11 UNL B 661      39.260  58.549 124.777  1.00  0.00    -0.274 OA
ENDBRANCH   5   7
BRANCH   4  14
ATOM     14  O09 UNL B 661      32.411  61.956 123.027  1.00  0.00    -0.343 OA
BRANCH  14  15
ATOM     15  C0F UNL B 661      31.853  61.312 121.939  1.00  0.00     0.129 C 
ATOM     16  C0M UNL B 661      30.876  62.309 121.139  1.00  0.00     0.032 C 
ATOM     17  C0W UNL B 661      29.474  62.279 121.857  1.00  0.00     0.002 C 
ATOM     18  C0Z UNL B 661      29.575  61.171 122.886  1.00  0.00     0.002 C 
ATOM     19  C0N UNL B 661      30.788  60.309 122.557  1.00  0.00     0.032 C 
ENDBRANCH  14  15
ENDBRANCH   4  14
BRANCH   2  20
ATOM     20  O04 UNL B 661      34.033  64.061 122.523  1.00  0.00    -0.353 OA
ATOM     21  C08 UNL B 661      34.247  64.086 121.060  1.00  0.00     0.210 C 
ENDBRANCH   2  20
TORSDOF 4
ENDMDL
MODEL 5
REMARK VINA RESULT:      -4.2      2.022      2.731
REMARK  4 active torsions:
REMARK  status: ('A' for Active; 'I' for Inactive)
REMARK    1  A    between atoms: C02_2  and  O04_4 
REMARK    2  A    between atoms: C05_5  and  O09_8 
REMARK    3  A    between atoms: C07_6  and  C0B_10 
REMARK    4  A    between atoms: O09_8  and  C0F_11 
ROOT
ATOM      1  C01 UNL B 661      35.919  63.427 128.678  1.00  0.00     0.040 A 
ATOM      2  C02 UNL B 661      35.557  63.560 127.357  1.00  0.00     0.101 A 
ATOM      3  C03 UNL B 661      36.284  62.156 129.177  1.00  0.00     0.010 A 
ATOM      4  C05 UNL B 661      35.629  62.475 126.494  1.00  0.00     0.103 A 
ATOM      5  C07 UNL B 661      36.431  61.041 128.318  1.00  0.00    -0.049 A 
ATOM      6  C0A UNL B 661      36.091  61.221 126.996  1.00  0.00     0.047 A 
ENDROOT
BRANCH   5   7
ATOM      7  C0B UNL B 661      36.936  59.684 128.764  1.00  0.00     0.045 C 
ATOM      8  C0I UNL B 661      36.887  58.579 127.685  1.00  0.00     0.132 C 
ATOM      9  N0Q UNL B 661      38.318  58.374 127.499  1.00  0.00    -0.360 N 
ATOM     10  C0T UNL B 661      39.079  59.060 128.318  1.00  0.00     0.218 C 
ATOM     11  H10 UNL B 661      38.787  57.998 126.679  1.00  0.00     0.162 HD
ATOM     12  C0J UNL B 661      38.324  59.666 129.403  1.00  0.00     0.113 C 
ATOM     13  O11 UNL B 661      40.325  59.087 128.282  1.00  0.00    -0.274 OA
ENDBRANCH   5   7
BRANCH   4  14
ATOM     14  O09 UNL B 661      34.968  62.612 125.261  1.00  0.00    -0.343 OA
BRANCH  14  15
ATOM     15  C0F UNL B 661      35.354  61.953 124.108  1.00  0.00     0.129 C 
ATOM     16  C0M UNL B 661      35.898  63.004 123.018  1.00  0.00     0.032 C 
ATOM     17  C0W UNL B 661      34.650  63.583 122.252  1.00  0.00     0.002 C 
ATOM     18  C0Z UNL B 661      33.470  62.761 122.729  1.00  0.00     0.002 C 
ATOM     19  C0N UNL B 661      33.996  61.507 123.417  1.00  0.00     0.032 C 
ENDBRANCH  14  15
ENDBRANCH   4  14
BRANCH   2  20
ATOM     20  O04 UNL B 661      35.156  64.803 126.837  1.00  0.00    -0.353 OA
ATOM     21  C08 UNL B 661      34.530  65.806 127.724  1.00  0.00     0.210 C 
ENDBRANCH   2  20
TORSDOF 4
ENDMDL
MODEL 6
REMARK VINA RESULT:      -4.1      3.758      4.852
REMARK  4 active torsions:
REMARK  status: ('A' for Active; 'I' for Inactive)
REMARK    1  A    between atoms: C02_2  and  O04_4 
REMARK    2  A    between atoms: C05_5  and  O09_8 
REMARK    3  A    between atoms: C07_6  and  C0B_10 
REMARK    4  A    between atoms: O09_8  and  C0F_11 
ROOT
ATOM      1  C01 UNL B 661      35.133  59.884 123.757  1.00  0.00     0.040 A 
ATOM      2  C02 UNL B 661      34.216  60.907 123.684  1.00  0.00     0.101 A 
ATOM      3  C03 UNL B 661      34.747  58.574 123.392  1.00  0.00     0.010 A 
ATOM      4  C05 UNL B 661      32.943  60.678 123.177  1.00  0.00     0.103 A 
ATOM      5  C07 UNL B 661      33.483  58.312 122.811  1.00  0.00    -0.049 A 
ATOM      6  C0A UNL B 661      32.604  59.367 122.725  1.00  0.00     0.047 A 
ENDROOT
BRANCH   5   7
ATOM      7  C0B UNL B 661      33.053  56.958 122.285  1.00  0.00     0.045 C 
ATOM      8  C0I UNL B 661      31.805  56.976 121.374  1.00  0.00     0.132 C 
ATOM      9  N0Q UNL B 661      32.431  56.586 120.117  1.00  0.00    -0.360 N 
ATOM     10  C0T UNL B 661      33.703  56.277 120.213  1.00  0.00     0.218 C 
ATOM     11  H10 UNL B 661      32.098  56.776 119.175  1.00  0.00     0.162 HD
ATOM     12  C0J UNL B 661      34.138  56.135 121.593  1.00  0.00     0.113 C 
ATOM     13  O11 UNL B 661      34.443  55.990 119.252  1.00  0.00    -0.274 OA
ENDBRANCH   5   7
BRANCH   4  14
ATOM     14  O09 UNL B 661      31.987  61.682 123.413  1.00  0.00    -0.343 OA
BRANCH  14  15
ATOM     15  C0F UNL B 661      31.162  62.198 122.431  1.00  0.00     0.129 C 
ATOM     16  C0M UNL B 661      32.038  62.805 121.226  1.00  0.00     0.032 C 
ATOM     17  C0W UNL B 661      32.451  64.270 121.629  1.00  0.00     0.002 C 
ATOM     18  C0Z UNL B 661      31.684  64.567 122.901  1.00  0.00     0.002 C 
ATOM     19  C0N UNL B 661      30.572  63.535 123.052  1.00  0.00     0.032 C 
ENDBRANCH  14  15
ENDBRANCH   4  14
BRANCH   2  20
ATOM     20  O04 UNL B 661      34.556  62.215 124.072  1.00  0.00    -0.353 OA
ATOM     21  C08 UNL B 661      35.549  62.980 123.289  1.00  0.00     0.210 C 
ENDBRANCH   2  20
TORSDOF 4
ENDMDL
MODEL 7
REMARK VINA RESULT:      -4.1      2.386      3.660
REMARK  4 active torsions:
REMARK  status: ('A' for Active; 'I' for Inactive)
REMARK    1  A    between atoms: C02_2  and  O04_4 
REMARK    2  A    between atoms: C05_5  and  O09_8 
REMARK    3  A    between atoms: C07_6  and  C0B_10 
REMARK    4  A    between atoms: O09_8  and  C0F_11 
ROOT
ATOM      1  C01 UNL B 661      34.705  58.067 123.492  1.00  0.00     0.040 A 
ATOM      2  C02 UNL B 661      33.971  59.185 123.165  1.00  0.00     0.101 A 
ATOM      3  C03 UNL B 661      35.917  58.213 124.205  1.00  0.00     0.010 A 
ATOM      4  C05 UNL B 661      34.369  60.442 123.602  1.00  0.00     0.103 A 
ATOM      5  C07 UNL B 661      36.322  59.465 124.723  1.00  0.00    -0.049 A 
ATOM      6  C0A UNL B 661      35.546  60.556 124.402  1.00  0.00     0.047 A 
ENDROOT
BRANCH   5   7
ATOM      7  C0B UNL B 661      37.542  59.670 125.598  1.00  0.00     0.045 C 
ATOM      8  C0I UNL B 661      37.475  58.992 126.984  1.00  0.00     0.132 C 
ATOM      9  N0Q UNL B 661      38.524  57.995 126.805  1.00  0.00    -0.360 N 
ATOM     10  C0T UNL B 661      39.175  58.086 125.669  1.00  0.00     0.218 C 
ATOM     11  H10 UNL B 661      38.629  57.113 127.299  1.00  0.00     0.162 HD
ATOM     12  C0J UNL B 661      38.887  59.322 124.960  1.00  0.00     0.113 C 
ATOM     13  O11 UNL B 661      40.056  57.292 125.286  1.00  0.00    -0.274 OA
ENDBRANCH   5   7
BRANCH   4  14
ATOM     14  O09 UNL B 661      33.749  61.543 122.985  1.00  0.00    -0.343 OA
BRANCH  14  15
ATOM     15  C0F UNL B 661      33.918  62.849 123.404  1.00  0.00     0.129 C 
ATOM     16  C0M UNL B 661      32.629  63.732 123.019  1.00  0.00     0.032 C 
ATOM     17  C0W UNL B 661      32.804  64.202 121.526  1.00  0.00     0.002 C 
ATOM     18  C0Z UNL B 661      34.209  63.791 121.138  1.00  0.00     0.002 C 
ATOM     19  C0N UNL B 661      34.989  63.465 122.406  1.00  0.00     0.032 C 
ENDBRANCH  14  15
ENDBRANCH   4  14
BRANCH   2  20
ATOM     20  O04 UNL B 661      32.780  59.080 122.427  1.00  0.00    -0.353 OA
ATOM     21  C08 UNL B 661      31.508  58.784 123.119  1.00  0.00     0.210 C 
ENDBRANCH   2  20
TORSDOF 4
ENDMDL
MODEL 8
REMARK VINA RESULT:      -4.1      4.123      5.843
REMARK  4 active torsions:
REMARK  status: ('A' for Active; 'I' for Inactive)
REMARK    1  A    between atoms: C02_2  and  O04_4 
REMARK    2  A    between atoms: C05_5  and  O09_8 
REMARK    3  A    between atoms: C07_6  and  C0B_10 
REMARK    4  A    between atoms: O09_8  and  C0F_11 
ROOT
ATOM      1  C01 UNL B 661      31.383  59.358 121.631  1.00  0.00     0.040 A 
ATOM      2  C02 UNL B 661      32.039  60.245 122.453  1.00  0.00     0.101 A 
ATOM      3  C03 UNL B 661      31.972  58.104 121.347  1.00  0.00     0.010 A 
ATOM      4  C05 UNL B 661      33.230  59.886 123.070  1.00  0.00     0.103 A 
ATOM      5  C07 UNL B 661      33.149  57.676 122.005  1.00  0.00    -0.049 A 
ATOM      6  C0A UNL B 661      33.759  58.579 122.845  1.00  0.00     0.047 A 
ENDROOT
BRANCH   5   7
ATOM      7  C0B UNL B 661      33.763  56.301 121.840  1.00  0.00     0.045 C 
ATOM      8  C0I UNL B 661      32.812  55.222 121.277  1.00  0.00     0.132 C 
ATOM      9  N0Q UNL B 661      33.457  54.995 119.989  1.00  0.00    -0.360 N 
ATOM     10  C0T UNL B 661      34.581  55.650 119.818  1.00  0.00     0.218 C 
ATOM     11  H10 UNL B 661      33.031  54.630 119.141  1.00  0.00     0.162 HD
ATOM     12  C0J UNL B 661      35.071  56.245 121.051  1.00  0.00     0.113 C 
ATOM     13  O11 UNL B 661      35.251  55.656 118.768  1.00  0.00    -0.274 OA
ENDBRANCH   5   7
BRANCH   4  14
ATOM     14  O09 UNL B 661      33.978  60.931 123.640  1.00  0.00    -0.343 OA
BRANCH  14  15
ATOM     15  C0F UNL B 661      35.359  60.984 123.618  1.00  0.00     0.129 C 
ATOM     16  C0M UNL B 661      35.952  60.781 125.100  1.00  0.00     0.032 C 
ATOM     17  C0W UNL B 661      35.924  62.182 125.819  1.00  0.00     0.002 C 
ATOM     18  C0Z UNL B 661      35.533  63.176 124.744  1.00  0.00     0.002 C 
ATOM     19  C0N UNL B 661      35.708  62.514 123.382  1.00  0.00     0.032 C 
ENDBRANCH  14  15
ENDBRANCH   4  14
BRANCH   2  20
ATOM     20  O04 UNL B 661      31.499  61.513 122.729  1.00  0.00    -0.353 OA
ATOM     21  C08 UNL B 661      31.448  62.539 121.666  1.00  0.00     0.210 C 
ENDBRANCH   2  20
TORSDOF 4
ENDMDL
MODEL 9
REMARK VINA RESULT:      -4.0      2.934      6.367
REMARK  4 active torsions:
REMARK  status: ('A' for Active; 'I' for Inactive)
REMARK    1  A    between atoms: C02_2  and  O04_4 
REMARK    2  A    between atoms: C05_5  and  O09_8 
REMARK    3  A    between atoms: C07_6  and  C0B_10 
REMARK    4  A    between atoms: O09_8  and  C0F_11 
ROOT
ATOM      1  C01 UNL B 661      35.845  63.769 127.307  1.00  0.00     0.040 A 
ATOM      2  C02 UNL B 661      36.233  62.749 128.146  1.00  0.00     0.101 A 
ATOM      3  C03 UNL B 661      35.759  63.534 125.916  1.00  0.00     0.010 A 
ATOM      4  C05 UNL B 661      36.459  61.474 127.646  1.00  0.00     0.103 A 
ATOM      5  C07 UNL B 661      35.918  62.236 125.376  1.00  0.00    -0.049 A 
ATOM      6  C0A UNL B 661      36.274  61.234 126.250  1.00  0.00     0.047 A 
ENDROOT
BRANCH   5   7
ATOM      7  C0B UNL B 661      35.718  61.892 123.914  1.00  0.00     0.045 C 
ATOM      8  C0I UNL B 661      34.387  61.181 123.584  1.00  0.00     0.132 C 
ATOM      9  N0Q UNL B 661      33.754  62.230 122.795  1.00  0.00    -0.360 N 
ATOM     10  C0T UNL B 661      34.512  63.277 122.569  1.00  0.00     0.218 C 
ATOM     11  H10 UNL B 661      32.759  62.370 122.638  1.00  0.00     0.162 HD
ATOM     12  C0J UNL B 661      35.902  63.044 122.927  1.00  0.00     0.113 C 
ATOM     13  O11 UNL B 661      34.144  64.312 121.982  1.00  0.00    -0.274 OA
ENDBRANCH   5   7
BRANCH   4  14
ATOM     14  O09 UNL B 661      37.131  60.579 128.497  1.00  0.00    -0.343 OA
BRANCH  14  15
ATOM     15  C0F UNL B 661      36.526  59.488 129.091  1.00  0.00     0.129 C 
ATOM     16  C0M UNL B 661      37.050  59.313 130.603  1.00  0.00     0.032 C 
ATOM     17  C0W UNL B 661      38.405  58.513 130.547  1.00  0.00     0.002 C 
ATOM     18  C0Z UNL B 661      38.550  58.070 129.105  1.00  0.00     0.002 C 
ATOM     19  C0N UNL B 661      37.202  58.222 128.411  1.00  0.00     0.032 C 
ENDBRANCH  14  15
ENDBRANCH   4  14
BRANCH   2  20
ATOM     20  O04 UNL B 661      36.362  62.958 129.530  1.00  0.00    -0.353 OA
ATOM     21  C08 UNL B 661      35.172  63.298 130.337  1.00  0.00     0.210 C 
ENDBRANCH   2  20
TORSDOF 4
ENDMDL
MODEL 10
REMARK VINA RESULT:      -4.0      4.030      6.686
REMARK  4 active torsions:
REMARK  status: ('A' for Active; 'I' for Inactive)
REMARK    1  A    between atoms: C02_2  and  O04_4 
REMARK    2  A    between atoms: C05_5  and  O09_8 
REMARK    3  A    between atoms: C07_6  and  C0B_10 
REMARK    4  A    between atoms: O09_8  and  C0F_11 
ROOT
ATOM      1  C01 UNL B 661      30.492  63.392 125.475  1.00  0.00     0.040 A 
ATOM      2  C02 UNL B 661      31.769  63.584 124.998  1.00  0.00     0.101 A 
ATOM      3  C03 UNL B 661      29.522  62.783 124.647  1.00  0.00     0.010 A 
ATOM      4  C05 UNL B 661      32.131  63.108 123.744  1.00  0.00     0.103 A 
ATOM      5  C07 UNL B 661      29.867  62.228 123.392  1.00  0.00    -0.049 A 
ATOM      6  C0A UNL B 661      31.162  62.411 122.962  1.00  0.00     0.047 A 
ENDROOT
BRANCH   5   7
ATOM      7  C0B UNL B 661      28.907  61.455 122.511  1.00  0.00     0.045 C 
ATOM      8  C0I UNL B 661      27.791  62.300 121.858  1.00  0.00     0.132 C 
ATOM      9  N0Q UNL B 661      28.202  62.190 120.464  1.00  0.00    -0.360 N 
ATOM     10  C0T UNL B 661      29.223  61.391 120.258  1.00  0.00     0.218 C 
ATOM     11  H10 UNL B 661      27.988  62.829 119.704  1.00  0.00     0.162 HD
ATOM     12  C0J UNL B 661      29.547  60.589 121.426  1.00  0.00     0.113 C 
ATOM     13  O11 UNL B 661      29.778  61.212 119.156  1.00  0.00    -0.274 OA
ENDBRANCH   5   7
BRANCH   4  14
ATOM     14  O09 UNL B 661      33.338  63.598 123.215  1.00  0.00    -0.343 OA
BRANCH  14  15
ATOM     15  C0F UNL B 661      34.335  62.788 122.707  1.00  0.00     0.129 C 
ATOM     16  C0M UNL B 661      34.416  61.412 123.536  1.00  0.00     0.032 C 
ATOM     17  C0W UNL B 661      35.301  61.676 124.812  1.00  0.00     0.002 C 
ATOM     18  C0Z UNL B 661      35.870  63.067 124.622  1.00  0.00     0.002 C 
ATOM     19  C0N UNL B 661      35.693  63.472 123.164  1.00  0.00     0.032 C 
ENDBRANCH  14  15
ENDBRANCH   4  14
BRANCH   2  20
ATOM     20  O04 UNL B 661      32.748  64.217 125.782  1.00  0.00    -0.353 OA
ATOM     21  C08 UNL B 661      33.035  63.722 127.145  1.00  0.00     0.210 C 
ENDBRANCH   2  20
TORSDOF 4
ENDMDL
